*Heading
** Job name: Job-1 Model name: Model-1
** Generated by: Abaqus/CAE 2023
*Preprint, echo=NO, model=NO, history=NO, contact=NO
**
** PARTS
**
*Part, name=Part-1
*Node
      1,         -15.,          15.,          20.
      2,         -15.,        -77.5,          20.
      3,         -15.,        -77.5,           0.
      4,         -15.,          15.,           0.
      5,          90.,        -77.5,          20.
      6,          90.,        -77.5,           0.
      7,        -17.5,         12.5,          20.
      8,         -90.,         12.5,          20.
      9,         -90.,         12.5,           0.
     10,        -17.5,         12.5,           0.
     11,         -90.,          15.,          20.
     12,         -90.,          15.,           0.
     13,          90.,         -80.,          20.
     14,          90.,         -80.,           0.
     15,        -17.5,         -80.,           0.
     16,        -17.5,        -77.5,           0.
     17,        -17.5,        -77.5,          20.
     18,        -17.5,         -80.,          20.
     19,           0.,          30.,          20.
     20,           0.,         -60.,          20.
** ... 5741 like lines cut
*Element, type=C3D10
   1, 1031,  156,  564,  610, 1062, 1061, 1060, 1064, 1063, 1065
   2, 1032,  608,  607,  153, 1068, 1067, 1066, 1070, 1069, 1071
   3,  541, 1033,  731,  540, 1074, 1073, 1072, 1076, 1075, 1077
   4, 1034,    5,   13,  171, 1080, 1079, 1078, 1082, 1081, 1083
   5, 1034,  526,   90,   91, 1086, 1085, 1084, 1088, 1087, 1089
   6, 1035,  555,  715,  734, 1092, 1091, 1090, 1094, 1093, 1095
   7,  171,  526, 1034,   91, 1096, 1086, 1082, 1097, 1087, 1088
   8, 1034,   13,    5,  246, 1078, 1079, 1080, 1099, 1098, 1100
   9, 1034,   90,  689,  246, 1084, 1102, 1101, 1099, 1103, 1104
  10, 1036,   14,   93,  173, 1107, 1106, 1105, 1109, 1108, 1110
  11,  537, 1037,  715,  555, 1113, 1112, 1111, 1115, 1114, 1091
  12,   94,    6,  562,  174, 1118, 1117, 1116, 1120, 1119, 1121
  13, 1036,  174,    6,   14, 1123, 1119, 1122, 1107, 1124, 1125
  14, 1036,  173,  727,  174, 1109, 1127, 1126, 1123, 1128, 1129
  15, 1036,  562,  727,   93, 1131, 1130, 1126, 1105, 1132, 1133
  16,  642,  479,  478,  462, 1136, 1135, 1134, 1138, 1137, 1139
  17,  743,  724,  529,  528, 1142, 1141, 1140, 1144, 1143, 1145
  18,  723, 1038,  529,  724, 1148, 1147, 1146, 1150, 1149, 1141
  19,  743,  724,  723,  529, 1142, 1150, 1151, 1140, 1141, 1146
  20,  547,  528,  743,  529, 1153, 1144, 1152, 1154, 1145, 1140
** ... 2599 like lines cut
*Nset, nset=Set-1, generate
    1,  5761,     1
*Elset, elset=Set-1, generate
    1,  2619,     1
** Section: Section-1
*Solid Section, elset=Set-1, material=Material-1
,
*End Part
**  
*Part, name=Part-2
*Node
      1,          20.,           3.,          20.
      2,          20.,           0.,          20.
      3,          20.,           0.,           0.
      4,          20.,           3.,           0.
      5,           0.,           0.,          20.
      6,           0.,           0.,           0.
      7,           0.,           3.,           0.
      8,           0.,           3.,          20.
      9,          20.,          1.5,          20.
     10,          20.,           0.,          18.
     11,          20.,           0.,          16.
     12,          20.,           0.,          14.
     13,          20.,           0.,          12.
     14,          20.,           0.,          10.
     15,          20.,           0.,           8.
     16,          20.,           0.,           6.
     17,          20.,           0.,           4.
     18,          20.,           0.,           2.
     19,          20.,          1.5,           0.
     20,          20.,           3.,           2.
** ... 2408 like lines cut
*Element, type=C3D10
   1,  156,  283,  284,  285,  392,  391,  390,  394,  393,  395
   2,  259,  286,   60,  287,  398,  397,  396,  400,  399,  401
   3,  288,  289,  105,  290,  404,  403,  402,  406,  405,  407
   4,  289,  199,  290,  288,  409,  408,  405,  404,  410,  406
   5,  289,  291,  208,  209,  413,  412,  411,  415,  414,  416
   6,  289,  291,  292,  113,  413,  418,  417,  420,  419,  421
   7,  289,  293,  104,  292,  424,  423,  422,  417,  425,  426
   8,  289,  291,  209,  292,  413,  414,  415,  417,  418,  427
   9,  289,  293,  292,  200,  424,  425,  417,  429,  428,  430
  10,  294,  295,  296,  212,  433,  432,  431,  435,  434,  436
  11,  294,  127,  295,  297,  438,  437,  433,  440,  439,  441
  12,  294,  295,  128,  296,  433,  443,  442,  431,  432,  444
  13,  294,  119,  298,  128,  447,  446,  445,  442,  448,  449
  14,  294,  299,  118,  127,  452,  451,  450,  438,  453,  454
  15,  294,  118,  119,  128,  450,  455,  447,  442,  456,  448
  16,  287,  300,  179,   61,  459,  458,  457,  461,  460,  462
  17,  287,  301,  302,  260,  465,  464,  463,  467,  466,  468
  18,  287,   51,  286,  179,  470,  469,  399,  457,  471,  472
  19,  303,  262,  304,  305,  475,  474,  473,  477,  476,  478
  20,  147,  306,  307,  156,  481,  480,  479,  483,  482,  484
** ... 1351 like lines cut
*Nset, nset=Set-1, generate
    1,  2428,     1
*Elset, elset=Set-1, generate
    1,  1371,     1
** Section: Section-1
*Solid Section, elset=Set-1, material=Material-1
,
*End Part
**  
*Part, name=Part-3
*Node
      1,          40.,          10.,          20.
      2,          40.,           0.,          20.
      3,          40.,           0.,           0.
      4,          40.,          10.,           0.
      5,           0.,           0.,          20.
      6,           0.,           0.,           0.
      7,           0.,          10.,           0.
      8,           0.,          10.,          20.
      9,          40.,   6.66666651,          20.
     10,          40.,   3.33333325,          20.
     11,          40.,           0.,          16.
     12,          40.,           0.,          12.
     13,          40.,           0.,           8.
     14,          40.,           0.,           4.
     15,          40.,   3.33333325,           0.
     16,          40.,   6.66666651,           0.
     17,          40.,          10.,           4.
     18,          40.,          10.,           8.
     19,          40.,          10.,          12.
     20,          40.,          10.,          16.
** ... 1908 like lines cut
*Element, type=C3D10
   1,  193,  194,  195,  196,  306,  305,  304,  308,  307,  309
   2,  193,  196,  197,  194,  308,  311,  310,  306,  307,  312
   3,  198,  110,  199,  200,  315,  314,  313,  317,  316,  318
   4,  201,  202,  203,  204,  321,  320,  319,  323,  322,  324
   5,  193,  146,  205,  196,  327,  326,  325,  308,  328,  329
   6,  193,  202,  194,  206,  331,  330,  306,  333,  332,  334
   7,  201,  144,  207,  145,  337,  336,  335,  339,  338,  340
   8,  194,  202,  193,  208,  330,  331,  306,  342,  341,  343
   9,  209,  129,  210,  120,  346,  345,  344,  348,  347,  349
  10,  211,  212,   92,  101,  352,  351,  350,  354,  353,  355
  11,  211,  213,  214,  215,  358,  357,  356,  360,  359,  361
  12,  211,  212,  101,  216,  352,  353,  354,  363,  362,  364
  13,  217,  212,  214,  216,  367,  366,  365,  368,  362,  369
  14,  212,  214,  216,  211,  366,  369,  362,  352,  356,  363
  15,  218,  216,  214,  215,  371,  369,  370,  373,  372,  361
  16,  219,  186,  185,   68,  376,  375,  374,  378,  377,  379
  17,  133,  220,  221,  222,  382,  381,  380,  384,  383,  385
  18,  223,  222,  220,  224,  387,  383,  386,  389,  388,  390
  19,  223,  221,  169,  171,  393,  392,  391,  395,  394,  396
  20,  225,   47,  127,  128,  399,  398,  397,  401,  400,  402
** ... 1113 like lines cut
*Nset, nset=Set-1, generate
    1,  1928,     1
*Elset, elset=Set-1, generate
    1,  1133,     1
** Section: Section-1
*Solid Section, elset=Set-1, material=Material-1
,
*End Part
**  
**
** ASSEMBLY
**
*Assembly, name=Assembly
**  
*Instance, name=Part-1-1, part=Part-1
*End Instance
**  
*Instance, name=Part-2-1, part=Part-2
         90.,         -60.,           0.
         90.,         -60.,           0., 90.5773502691896, -60.5773502691896, 0.577350269189626,         120.
*End Instance
**  
*Instance, name=Part-3-1, part=Part-3
       -100.,           0.,          20.
       -100.,           0.,          20., -99.2928932098417, 0.707106790158355,          20.,         180.
*End Instance
**  
*Nset, nset=Set-1, instance=Part-3-1
    2,    3,    5,    6,   11,   12,   13,   14,   21,   22,   23,   24,   25,   26,   27,   28
   29,   30,   31,   32,   33,   34,   35,   36,   37,   38,   39,   40,   41,   42,   77,   78
   79,   80,   81,   82,   83,   84,   85,   86,   87,   88,   89,   90,   91,   92,   93,   94
   95,   96,   97,   98,   99,  100,  101,  102,  103,  104,  105,  106,  107,  108,  109,  110
  111,  112,  355,  454,  552,  554,  556,  565,  680,  688,  754,  787,  798,  810,  826,  856
  864,  866,  867,  870,  879,  921,  922,  930,  932,  936,  937,  971,  977,  995,  996,  997
 1004, 1008, 1013, 1015, 1017, 1019, 1031, 1036, 1038, 1039, 1050, 1055, 1059, 1068, 1074, 1076
 1098, 1139, 1140, 1217, 1219, 1221, 1259, 1261, 1275, 1278, 1298, 1299, 1310, 1329, 1331, 1341
 1343, 1347, 1368, 1374, 1395, 1399, 1415, 1425, 1430, 1431, 1434, 1442, 1478, 1486, 1499, 1500
 1527, 1529, 1533, 1547, 1549, 1552, 1553, 1554, 1557, 1570, 1606, 1621, 1622, 1625, 1647, 1662
 1681, 1683, 1686, 1694, 1697, 1704, 1707, 1708, 1709, 1713, 1722, 1724, 1725, 1726, 1728, 1737
 1738, 1741, 1772, 1781, 1782, 1800, 1801, 1805, 1815, 1819, 1820, 1854, 1855, 1863, 1868, 1870
 1871, 1874, 1875, 1877, 1879, 1880, 1882, 1883, 1884, 1885, 1887, 1888, 1889, 1890, 1891, 1892
 1893, 1896, 1897, 1899, 1900, 1902, 1903, 1904, 1905, 1906, 1907, 1909, 1913, 1916, 1917, 1918
 1919, 1920, 1923, 1924, 1925, 1926, 1927
*Elset, elset=Set-1, instance=Part-3-1
   56,  153,  171,  174,  177,  199,  207,  214,  250,  281,  301,  307,  321,  323,  400,  402
  481,  484,  531,  536,  591,  601,  611,  613,  634,  654,  703,  797,  804,  822,  834,  848
  853,  864,  867,  874,  897,  900,  902,  913,  915,  920,  924,  928,  933,  944,  945,  948
  951,  959,  962,  964,  968,  970,  971,  974,  975,  976,  981,  984,  985,  987,  990,  991
 1002, 1004, 1006, 1008, 1020, 1023, 1025, 1028, 1030, 1036, 1038, 1045, 1051, 1054, 1061, 1062
 1064, 1066, 1068, 1075, 1076, 1078, 1079, 1082, 1083, 1085, 1088, 1091, 1092, 1097, 1101, 1102
 1103, 1108, 1111, 1129
*Nset, nset=Set-2, instance=Part-3-1
    2,    3,    5,    6,   11,   12,   13,   14,   21,   22,   23,   24,   25,   26,   27,   28
   29,   30,   31,   32,   33,   34,   35,   36,   37,   38,   39,   40,   41,   42,   77,   78
   79,   80,   81,   82,   83,   84,   85,   86,   87,   88,   89,   90,   91,   92,   93,   94
   95,   96,   97,   98,   99,  100,  101,  102,  103,  104,  105,  106,  107,  108,  109,  110
  111,  112,  355,  454,  552,  554,  556,  565,  680,  688,  754,  787,  798,  810,  826,  856
  864,  866,  867,  870,  879,  921,  922,  930,  932,  936,  937,  971,  977,  995,  996,  997
 1004, 1008, 1013, 1015, 1017, 1019, 1031, 1036, 1038, 1039, 1050, 1055, 1059, 1068, 1074, 1076
 1098, 1139, 1140, 1217, 1219, 1221, 1259, 1261, 1275, 1278, 1298, 1299, 1310, 1329, 1331, 1341
 1343, 1347, 1368, 1374, 1395, 1399, 1415, 1425, 1430, 1431, 1434, 1442, 1478, 1486, 1499, 1500
 1527, 1529, 1533, 1547, 1549, 1552, 1553, 1554, 1557, 1570, 1606, 1621, 1622, 1625, 1647, 1662
 1681, 1683, 1686, 1694, 1697, 1704, 1707, 1708, 1709, 1713, 1722, 1724, 1725, 1726, 1728, 1737
 1738, 1741, 1772, 1781, 1782, 1800, 1801, 1805, 1815, 1819, 1820, 1854, 1855, 1863, 1868, 1870
 1871, 1874, 1875, 1877, 1879, 1880, 1882, 1883, 1884, 1885, 1887, 1888, 1889, 1890, 1891, 1892
 1893, 1896, 1897, 1899, 1900, 1902, 1903, 1904, 1905, 1906, 1907, 1909, 1913, 1916, 1917, 1918
 1919, 1920, 1923, 1924, 1925, 1926, 1927
*Elset, elset=Set-2, instance=Part-3-1
   56,  153,  171,  174,  177,  199,  207,  214,  250,  281,  301,  307,  321,  323,  400,  402
  481,  484,  531,  536,  591,  601,  611,  613,  634,  654,  703,  797,  804,  822,  834,  848
  853,  864,  867,  874,  897,  900,  902,  913,  915,  920,  924,  928,  933,  944,  945,  948
  951,  959,  962,  964,  968,  970,  971,  974,  975,  976,  981,  984,  985,  987,  990,  991
 1002, 1004, 1006, 1008, 1020, 1023, 1025, 1028, 1030, 1036, 1038, 1045, 1051, 1054, 1061, 1062
 1064, 1066, 1068, 1075, 1076, 1078, 1079, 1082, 1083, 1085, 1088, 1091, 1092, 1097, 1101, 1102
 1103, 1108, 1111, 1129
*Elset, elset=_Surf-Q-Force_S3, internal, instance=Part-2-1
   42,   95,  100,  134,  147,  212,  235,  387,  466,  472,  473,  503,  550,  659,  739,  750
  764,  776,  782,  791,  964, 1034, 1042, 1043, 1046, 1054, 1055, 1064, 1069, 1074, 1079, 1083
 1090, 1093, 1103, 1110, 1120, 1344
*Elset, elset=_Surf-Q-Force_S4, internal, instance=Part-2-1
 534, 668
*Surface, type=ELEMENT, name=Surf-Q-Force
_Surf-Q-Force_S3, S3
_Surf-Q-Force_S4, S4
*Elset, elset=_Surf-Side-1_S4, internal, instance=Part-1-1
   22,  681, 2596, 2598
*Elset, elset=_Surf-Side-1_S2, internal, instance=Part-1-1
   25,   27,  364,  602, 1968
*Elset, elset=_Surf-Side-1_S3, internal, instance=Part-1-1
  407,  704, 1551, 1992, 2002, 2003, 2140
*Surface, type=ELEMENT, name=Surf-Side-1
_Surf-Side-1_S4, S4
_Surf-Side-1_S2, S2
_Surf-Side-1_S3, S3
*Elset, elset=_Surf-Side-2_S3, internal, instance=Part-1-1
    4,   10,  401,  503,  504,  976, 1317, 1326, 2245, 2275, 2301, 2311
*Elset, elset=_Surf-Side-2_S2, internal, instance=Part-1-1
  24, 497
*Elset, elset=_Surf-Side-2_S1, internal, instance=Part-1-1
 1769, 2299
*Surface, type=ELEMENT, name=Surf-Side-2
_Surf-Side-2_S3, S3
_Surf-Side-2_S2, S2
_Surf-Side-2_S1, S1
*Elset, elset=_Surf-Wall_S3, internal, instance=Part-3-1
   99,  100,  107,  170,  182,  185,  237,  242,  262,  264,  274,  420,  427,  474,  475,  497
  552,  556,  559,  584,  585,  610,  614,  618,  627,  628,  675,  678,  682,  694,  696,  702
  718,  721,  730,  744,  775,  780,  782,  784,  786,  788,  791,  801,  802,  806,  812,  814
  815,  817,  819,  821,  825,  826,  828,  835,  837,  838,  839,  844,  845,  846,  849,  851
  857,  863,  880,  885,  887,  894,  901,  905,  908,  910,  921,  923,  938,  946,  954,  967
  973,  993,  997, 1046, 1056, 1067, 1084, 1098, 1105, 1114, 1117, 1122, 1131
*Elset, elset=_Surf-Wall_S4, internal, instance=Part-3-1
  491,  792, 1033
*Elset, elset=_Surf-Wall_S2, internal, instance=Part-3-1
  798,  823,  914, 1069
*Surface, type=ELEMENT, name=Surf-Wall
_Surf-Wall_S3, S3
_Surf-Wall_S4, S4
_Surf-Wall_S2, S2
*Elset, elset=_Surf-Wall-2_S3, internal, instance=Part-2-1
   42,   95,  100,  102,  134,  147,  164,  175,  212,  224,  235,  387,  424,  428,  429,  466
  472,  473,  503,  527,  550,  572,  577,  591,  594,  659,  697,  698,  703,  704,  706,  707
  708,  714,  715,  716,  718,  720,  724,  725,  739,  750,  764,  770,  776,  782,  791,  964
  984,  985,  986,  987, 1000, 1009, 1012, 1031, 1034, 1042, 1043, 1046, 1054, 1055, 1064, 1069
 1074, 1079, 1083, 1090, 1093, 1103, 1110, 1120, 1122, 1288, 1297, 1309, 1344
*Elset, elset=_Surf-Wall-2_S4, internal, instance=Part-2-1
  534,  668, 1367
*Surface, type=ELEMENT, name=Surf-Wall-2
_Surf-Wall-2_S3, S3
_Surf-Wall-2_S4, S4
*End Assembly
*Amplitude, name=Amp-1
             0.,              0.,              1.,              1.
** 
** MATERIALS
** 
*Material, name=Material-1
*Density
7850.,
*Elastic
 1.99948e+11, 0.3
*Plastic
 2.482e+08,     0.
   2.9e+08, 0.0005
   3.2e+08, 0.0009
   3.4e+08,  0.001
   3.8e+08,  0.007
   4.1e+08,  0.009
   4.4e+08,   0.01
** 
** INTERACTION PROPERTIES
** 
*Surface Interaction, name=IntProp-1
*Friction
 0.5,
*Surface Behavior, pressure-overclosure=HARD
** ----------------------------------------------------------------
** 
** STEP: Step-1
** 
*Step, name=Step-1, nlgeom=YES
*Dynamic, Explicit
, 1.
*Bulk Viscosity
0.06, 1.2
** 
** BOUNDARY CONDITIONS
** 
** Name: BC-1 Type: Symmetry/Antisymmetry/Encastre
*Boundary
Set-2, ENCASTRE
** 
** LOADS
** 
** Name: Load-1   Type: Pressure
*Dsload, amplitude=Amp-1
Surf-Q-Force, P, 10000.
** 
** OUTPUT REQUESTS
** 
*Restart, write, number interval=1, time marks=NO
** 
** FIELD OUTPUT: F-Output-1
** 
*Output, field, variable=PRESELECT
** 
** HISTORY OUTPUT: H-Output-1
** 
*Output, history, variable=PRESELECT
*End Step
